Error: Unable to access jarfile /lv3/data/snac_saxon/snacTransform.jar
Error: Unable to access jarfile /lv3/data/snac_saxon/snacTransform.jar
../snac_transform.sh: line 2: unexpected EOF while looking for matching `}'
../snac_transform.sh: line 5: syntax error: unexpected end of file
../snac_transform.sh: line 2: unexpected EOF while looking for matching `}'
../snac_transform.sh: line 5: syntax error: unexpected end of file
Transformation failed: Source file dummy.xml does not exist
Using abbreviation: nnc-rb
        Input file: nnc-rb_faList.txt
       Output file: nnc-rb_list.xml

Error, filename must begin with dot slash at group/position: 1/1 value: /home/thc4/working/aeon/db/ead/nnc-rb/ldpd_4079404_ead.xml

Error, filename must begin with dot slash at group/position: 1/2 value: /home/thc4/working/aeon/db/ead/nnc-rb/ldpd_4078396_ead.xml

Error, filename must begin with dot slash at group/position: 1/3 value: /home/thc4/working/aeon/db/ead/nnc-rb/ldpd_4078801_ead.xml

Error, filename must begin with dot slash at group/position: 1/4 value: /home/thc4/working/aeon/db/ead/nnc-rb/ldpd_6912690_ead.xml

Error, filename must begin with dot slash at group/position: 1/5 value: /home/thc4/working/aeon/db/ead/nnc-rb/ldpd_7072761_ead.xml

Error, filename must begin with dot slash at group/position: 1/6 value: /home/thc4/working/aeon/db/ead/nnc-rb/ldpd_5541450_ead.xml

Error, filename must begin with dot slash at group/position: 1/7 value: /home/thc4/working/aeon/db/ead/nnc-rb/ldpd_5477062_ead.xml

Error, filename must begin with dot slash at group/position: 1/8 value: /home/thc4/working/aeon/db/ead/nnc-rb/ldpd_4078831_ead.xml

Error, filename must begin with dot slash at group/position: 1/9 value: /home/thc4/working/aeon/db/ead/nnc-rb/ldpd_4078771_ead.xml

Error, filename must begin with dot slash at group/position: 1/10 value: /home/thc4/working/aeon/db/ead/nnc-rb/ldpd_4078414_ead.xml

Error, filename must begin with dot slash at group/position: 1/11 value: /home/thc4/working/aeon/db/ead/nnc-rb/ldpd_4078707_ead.xml

Error, filename must begin with dot slash at group/position: 1/12 value: /home/thc4/working/aeon/db/ead/nnc-rb/ldpd_4079108_ead.xml

Error, filename must begin with dot slash at group/position: 1/13 value: /home/thc4/working/aeon/db/ead/nnc-rb/ldpd_4078569_ead.xml

Error, filename must begin with dot slash at group/position: 1/14 value: /home/thc4/working/aeon/db/ead/nnc-rb/ldpd_4079912_ead.xml

Error, filename must begin with dot slash at group/position: 1/15 value: /home/thc4/working/aeon/db/ead/nnc-rb/ldpd_9207262_ead.xml

Error, filename must begin with dot slash at group/position: 1/16 value: /home/thc4/working/aeon/db/ead/nnc-rb/ldpd_6484240_ead.xml

Error, filename must begin with dot slash at group/position: 1/17 value: /home/thc4/working/aeon/db/ead/nnc-rb/ldpd_4079517_ead.xml

Error, filename must begin with dot slash at group/position: 1/18 value: /home/thc4/working/aeon/db/ead/nnc-rb/ldpd_4079760_ead.xml

Error, filename must begin with dot slash at group/position: 1/19 value: /home/thc4/working/aeon/db/ead/nnc-rb/ldpd_4078961_ead.xml

Error, filename must begin with dot slash at group/position: 1/20 value: /home/thc4/working/aeon/db/ead/nnc-rb/ldpd_7467767_ead.xml

Error, filename must begin with dot slash at group/position: 1/21 value: /home/thc4/working/aeon/db/ead/nnc-rb/ldpd_4079312_ead.xml

Error, filename must begin with dot slash at group/position: 1/22 value: /home/thc4/working/aeon/db/ead/nnc-rb/ldpd_4078548_ead.xml

Error, filename must begin with dot slash at group/position: 1/23 value: /home/thc4/working/aeon/db/ead/nnc-rb/ldpd_4079304_ead.xml

Error, filename must begin with dot slash at group/position: 1/24 value: /home/thc4/working/aeon/db/ead/nnc-rb/ldpd_4079342_ead.xml

Error, filename must begin with dot slash at group/position: 1/25 value: /home/thc4/working/aeon/db/ead/nnc-rb/ldpd_4078673_ead.xml

Error, filename must begin with dot slash at group/position: 1/26 value: /home/thc4/working/aeon/db/ead/nnc-rb/ldpd_9541811_ead.xml

Error, filename must begin with dot slash at group/position: 1/27 value: /home/thc4/working/aeon/db/ead/nnc-rb/ldpd_4079172_ead.xml

Error, filename must begin with dot slash at group/position: 1/28 value: /home/thc4/working/aeon/db/ead/nnc-rb/ldpd_7269482_ead.xml

Error, filename must begin with dot slash at group/position: 1/29 value: /home/thc4/working/aeon/db/ead/nnc-rb/ldpd_4079615_ead.xml

Error, filename must begin with dot slash at group/position: 1/30 value: /home/thc4/working/aeon/db/ead/nnc-rb/ldpd_7031632_ead.xml

Error, filename must begin with dot slash at group/position: 1/31 value: /home/thc4/working/aeon/db/ead/nnc-rb/ldpd_4078934_ead.xml

Error, filename must begin with dot slash at group/position: 1/32 value: /home/thc4/working/aeon/db/ead/nnc-rb/ldpd_6761446_ead.xml

Error, filename must begin with dot slash at group/position: 1/33 value: /home/thc4/working/aeon/db/ead/nnc-rb/ldpd_7229539_ead.xml

Error, filename must begin with dot slash at group/position: 1/34 value: /home/thc4/working/aeon/db/ead/nnc-rb/ldpd_4078584_ead.xml

Error, filename must begin with dot slash at group/position: 1/35 value: /home/thc4/working/aeon/db/ead/nnc-rb/ldpd_5486657_ead.xml

Error, filename must begin with dot slash at group/position: 1/36 value: /home/thc4/working/aeon/db/ead/nnc-rb/ldpd_4078723_ead.xml

Error, filename must begin with dot slash at group/position: 1/37 value: /home/thc4/working/aeon/db/ead/nnc-rb/ldpd_4079179_ead.xml

Error, filename must begin with dot slash at group/position: 1/38 value: /home/thc4/working/aeon/db/ead/nnc-rb/ldpd_4077413_ead.xml

Error, filename must begin with dot slash at group/position: 1/39 value: /home/thc4/working/aeon/db/ead/nnc-rb/ldpd_4078390_ead.xml

Error, filename must begin with dot slash at group/position: 1/40 value: /home/thc4/working/aeon/db/ead/nnc-rb/ldpd_4078748_ead.xml

Error, filename must begin with dot slash at group/position: 1/41 value: /home/thc4/working/aeon/db/ead/nnc-rb/ldpd_4078815_ead.xml

Error, filename must begin with dot slash at group/position: 1/42 value: /home/thc4/working/aeon/db/ead/nnc-rb/ldpd_4078363_ead.xml

Error, filename must begin with dot slash at group/position: 1/43 value: /home/thc4/working/aeon/db/ead/nnc-rb/ldpd_5685941_ead.xml

Error, filename must begin with dot slash at group/position: 1/44 value: /home/thc4/working/aeon/db/ead/nnc-rb/ldpd_4079724_ead.xml

Error, filename must begin with dot slash at group/position: 1/45 value: /home/thc4/working/aeon/db/ead/nnc-rb/ldpd_4079761_ead.xml

Error, filename must begin with dot slash at group/position: 1/46 value: /home/thc4/working/aeon/db/ead/nnc-rb/ldpd_4079827_ead.xml

Error, filename must begin with dot slash at group/position: 1/47 value: /home/thc4/working/aeon/db/ead/nnc-rb/ldpd_4078401_ead.xml

Error, filename must begin with dot slash at group/position: 1/48 value: /home/thc4/working/aeon/db/ead/nnc-rb/ldpd_4078520_ead.xml

Error, filename must begin with dot slash at group/position: 1/49 value: /home/thc4/working/aeon/db/ead/nnc-rb/ldpd_9503889_ead.xml

Error, filename must begin with dot slash at group/position: 1/50 value: /home/thc4/working/aeon/db/ead/nnc-rb/ldpd_4079678_ead.xml

Error, filename must begin with dot slash at group/position: 1/51 value: /home/thc4/working/aeon/db/ead/nnc-rb/ldpd_4078839_ead.xml

Error, filename must begin with dot slash at group/position: 1/52 value: /home/thc4/working/aeon/db/ead/nnc-rb/ldpd_7932411_ead.xml

Error, filename must begin with dot slash at group/position: 1/53 value: /home/thc4/working/aeon/db/ead/nnc-rb/ldpd_6570018_ead.xml

Error, filename must begin with dot slash at group/position: 1/54 value: /home/thc4/working/aeon/db/ead/nnc-rb/ldpd_5475441_ead.xml

Error, filename must begin with dot slash at group/position: 1/55 value: /home/thc4/working/aeon/db/ead/nnc-rb/ldpd_5012632_ead.xml

Error, filename must begin with dot slash at group/position: 1/56 value: /home/thc4/working/aeon/db/ead/nnc-rb/ldpd_4078979_ead.xml

Error, filename must begin with dot slash at group/position: 1/57 value: /home/thc4/working/aeon/db/ead/nnc-rb/ldpd_4079089_ead.xml

Error, filename must begin with dot slash at group/position: 1/58 value: /home/thc4/working/aeon/db/ead/nnc-rb/ldpd_7451336_ead.xml

Error, filename must begin with dot slash at group/position: 1/59 value: /home/thc4/working/aeon/db/ead/nnc-rb/ldpd_4078725_ead.xml

Error, filename must begin with dot slash at group/position: 1/60 value: /home/thc4/working/aeon/db/ead/nnc-rb/ldpd_5455879_ead.xml

Error, filename must begin with dot slash at group/position: 1/61 value: /home/thc4/working/aeon/db/ead/nnc-rb/ldpd_4079288_ead.xml

Error, filename must begin with dot slash at group/position: 1/62 value: /home/thc4/working/aeon/db/ead/nnc-rb/ldpd_7268954_ead.xml

Error, filename must begin with dot slash at group/position: 1/63 value: /home/thc4/working/aeon/db/ead/nnc-rb/ldpd_4078978_ead.xml

Error, filename must begin with dot slash at group/position: 1/64 value: /home/thc4/working/aeon/db/ead/nnc-rb/ldpd_9135518_ead.xml

Error, filename must begin with dot slash at group/position: 1/65 value: /home/thc4/working/aeon/db/ead/nnc-rb/ldpd_4079117_ead.xml

Error, filename must begin with dot slash at group/position: 1/66 value: /home/thc4/working/aeon/db/ead/nnc-rb/ldpd_4079575_ead.xml

Error, filename must begin with dot slash at group/position: 1/67 value: /home/thc4/working/aeon/db/ead/nnc-rb/ldpd_4078552_ead.xml

Error, filename must begin with dot slash at group/position: 1/68 value: /home/thc4/working/aeon/db/ead/nnc-rb/ldpd_4079407_ead.xml

Error, filename must begin with dot slash at group/position: 1/69 value: /home/thc4/working/aeon/db/ead/nnc-rb/ldpd_9461817_ead.xml

Error, filename must begin with dot slash at group/position: 1/70 value: /home/thc4/working/aeon/db/ead/nnc-rb/ldpd_4079748_ead.xml

Error, filename must begin with dot slash at group/position: 1/71 value: /home/thc4/working/aeon/db/ead/nnc-rb/ldpd_4078876_ead.xml

Error, filename must begin with dot slash at group/position: 1/72 value: /home/thc4/working/aeon/db/ead/nnc-rb/ldpd_4078871_ead.xml

Error, filename must begin with dot slash at group/position: 1/73 value: /home/thc4/working/aeon/db/ead/nnc-rb/ldpd_6909801_ead.xml

Error, filename must begin with dot slash at group/position: 1/74 value: /home/thc4/working/aeon/db/ead/nnc-rb/ldpd_4079363_ead.xml

Error, filename must begin with dot slash at group/position: 1/75 value: /home/thc4/working/aeon/db/ead/nnc-rb/ldpd_9180164_ead.xml

Error, filename must begin with dot slash at group/position: 1/76 value: /home/thc4/working/aeon/db/ead/nnc-rb/ldpd_6062290_ead.xml

Error, filename must begin with dot slash at group/position: 1/77 value: /home/thc4/working/aeon/db/ead/nnc-rb/ldpd_4079624_ead.xml

Error, filename must begin with dot slash at group/position: 1/78 value: /home/thc4/working/aeon/db/ead/nnc-rb/ldpd_4079114_ead.xml

Error, filename must begin with dot slash at group/position: 1/79 value: /home/thc4/working/aeon/db/ead/nnc-rb/ldpd_5419251_ead.xml

Error, filename must begin with dot slash at group/position: 1/80 value: /home/thc4/working/aeon/db/ead/nnc-rb/ldpd_4078665_ead.xml

Error, filename must begin with dot slash at group/position: 1/81 value: /home/thc4/working/aeon/db/ead/nnc-rb/ldpd_4078595_ead.xml

Error, filename must begin with dot slash at group/position: 1/82 value: /home/thc4/working/aeon/db/ead/nnc-rb/ldpd_4079640_ead.xml

Error, filename must begin with dot slash at group/position: 1/83 value: /home/thc4/working/aeon/db/ead/nnc-rb/ldpd_4078364_ead.xml

Error, filename must begin with dot slash at group/position: 1/84 value: /home/thc4/working/aeon/db/ead/nnc-rb/ldpd_4078415_ead.xml

Error, filename must begin with dot slash at group/position: 1/85 value: /home/thc4/working/aeon/db/ead/nnc-rb/ldpd_4078629_ead.xml

Error, filename must begin with dot slash at group/position: 1/86 value: /home/thc4/working/aeon/db/ead/nnc-rb/ldpd_9007821_ead.xml

Error, filename must begin with dot slash at group/position: 1/87 value: /home/thc4/working/aeon/db/ead/nnc-rb/ldpd_4078809_ead.xml

Error, filename must begin with dot slash at group/position: 1/88 value: /home/thc4/working/aeon/db/ead/nnc-rb/ldpd_5767616_ead.xml

Error, filename must begin with dot slash at group/position: 1/89 value: /home/thc4/working/aeon/db/ead/nnc-rb/ldpd_6915590_ead.xml

Error, filename must begin with dot slash at group/position: 1/90 value: /home/thc4/working/aeon/db/ead/nnc-rb/ldpd_7089617_ead.xml

Error, filename must begin with dot slash at group/position: 1/91 value: /home/thc4/working/aeon/db/ead/nnc-rb/ldpd_4078392_ead.xml

Error, filename must begin with dot slash at group/position: 1/92 value: /home/thc4/working/aeon/db/ead/nnc-rb/ldpd_4078891_ead.xml

Error, filename must begin with dot slash at group/position: 1/93 value: /home/thc4/working/aeon/db/ead/nnc-rb/ldpd_6460813_ead.xml

Error, filename must begin with dot slash at group/position: 1/94 value: /home/thc4/working/aeon/db/ead/nnc-rb/ldpd_6621199_ead.xml

Error, filename must begin with dot slash at group/position: 1/95 value: /home/thc4/working/aeon/db/ead/nnc-rb/ldpd_8644506_ead.xml

Error, filename must begin with dot slash at group/position: 1/96 value: /home/thc4/working/aeon/db/ead/nnc-rb/ldpd_5410361_ead.xml

Error, filename must begin with dot slash at group/position: 1/97 value: /home/thc4/working/aeon/db/ead/nnc-rb/ldpd_4078928_ead.xml

Error, filename must begin with dot slash at group/position: 1/98 value: /home/thc4/working/aeon/db/ead/nnc-rb/ldpd_4078755_ead.xml

Error, filename must begin with dot slash at group/position: 1/99 value: /home/thc4/working/aeon/db/ead/nnc-rb/ldpd_4079665_ead.xml

Error, filename must begin with dot slash at group/position: 1/100 value: /home/thc4/working/aeon/db/ead/nnc-rb/ldpd_7746709_ead.xml

Error, filename must begin with dot slash at group/position: 1/101 value: /home/thc4/working/aeon/db/ead/nnc-rb/ldpd_4079902_ead.xml

Error, filename must begin with dot slash at group/position: 1/102 value: /home/thc4/working/aeon/db/ead/nnc-rb/ldpd_4079582_ead.xml

Error, filename must begin with dot slash at group/position: 1/103 value: /home/thc4/working/aeon/db/ead/nnc-rb/ldpd_6910483_ead.xml

Error, filename must begin with dot slash at group/position: 1/104 value: /home/thc4/working/aeon/db/ead/nnc-rb/ldpd_4079595_ead.xml

Error, filename must begin with dot slash at group/position: 1/105 value: /home/thc4/working/aeon/db/ead/nnc-rb/ldpd_6797567_ead.xml

Error, filename must begin with dot slash at group/position: 1/106 value: /home/thc4/working/aeon/db/ead/nnc-rb/ldpd_4079913_ead.xml

Error, filename must begin with dot slash at group/position: 1/107 value: /home/thc4/working/aeon/db/ead/nnc-rb/ldpd_4079908_ead.xml

Error, filename must begin with dot slash at group/position: 1/108 value: /home/thc4/working/aeon/db/ead/nnc-rb/ldpd_4078609_ead.xml

Error, filename must begin with dot slash at group/position: 1/109 value: /home/thc4/working/aeon/db/ead/nnc-rb/ldpd_4079566_ead.xml

Error, filename must begin with dot slash at group/position: 1/110 value: /home/thc4/working/aeon/db/ead/nnc-rb/ldpd_5439898_ead.xml

Error, filename must begin with dot slash at group/position: 1/111 value: /home/thc4/working/aeon/db/ead/nnc-rb/ldpd_4079916_ead.xml

Error, filename must begin with dot slash at group/position: 1/112 value: /home/thc4/working/aeon/db/ead/nnc-rb/ldpd_4079618_ead.xml

Error, filename must begin with dot slash at group/position: 1/113 value: /home/thc4/working/aeon/db/ead/nnc-rb/ldpd_7299068_ead.xml

Error, filename must begin with dot slash at group/position: 1/114 value: /home/thc4/working/aeon/db/ead/nnc-rb/ldpd_4079419_ead.xml

Error, filename must begin with dot slash at group/position: 1/115 value: /home/thc4/working/aeon/db/ead/nnc-rb/ldpd_4078751_ead.xml

Error, filename must begin with dot slash at group/position: 1/116 value: /home/thc4/working/aeon/db/ead/nnc-rb/ldpd_4078923_ead.xml

Error, filename must begin with dot slash at group/position: 1/117 value: /home/thc4/working/aeon/db/ead/nnc-rb/ldpd_4079721_ead.xml

Error, filename must begin with dot slash at group/position: 1/118 value: /home/thc4/working/aeon/db/ead/nnc-rb/ldpd_4079160_ead.xml

Error, filename must begin with dot slash at group/position: 1/119 value: /home/thc4/working/aeon/db/ead/nnc-rb/ldpd_5002871_ead.xml

Error, filename must begin with dot slash at group/position: 1/120 value: /home/thc4/working/aeon/db/ead/nnc-rb/ldpd_4079444_ead.xml

Error, filename must begin with dot slash at group/position: 1/121 value: /home/thc4/working/aeon/db/ead/nnc-rb/ldpd_4079500_ead.xml

Error, filename must begin with dot slash at group/position: 1/122 value: /home/thc4/working/aeon/db/ead/nnc-rb/ldpd_6766907_ead.xml

Error, filename must begin with dot slash at group/position: 1/123 value: /home/thc4/working/aeon/db/ead/nnc-rb/ldpd_4078954_ead.xml

Error, filename must begin with dot slash at group/position: 1/124 value: /home/thc4/working/aeon/db/ead/nnc-rb/ldpd_4078744_ead.xml

Error, filename must begin with dot slash at group/position: 1/125 value: /home/thc4/working/aeon/db/ead/nnc-rb/ldpd_4078424_ead.xml

Error, filename must begin with dot slash at group/position: 1/126 value: /home/thc4/working/aeon/db/ead/nnc-rb/ldpd_4079157_ead.xml

Error, filename must begin with dot slash at group/position: 1/127 value: /home/thc4/working/aeon/db/ead/nnc-rb/ldpd_5419526_ead.xml

Error, filename must begin with dot slash at group/position: 1/128 value: /home/thc4/working/aeon/db/ead/nnc-rb/ldpd_4079505_ead.xml

Error, filename must begin with dot slash at group/position: 1/129 value: /home/thc4/working/aeon/db/ead/nnc-rb/ldpd_5801327_ead.xml

Error, filename must begin with dot slash at group/position: 1/130 value: /home/thc4/working/aeon/db/ead/nnc-rb/ldpd_4078845_ead.xml

Error, filename must begin with dot slash at group/position: 1/131 value: /home/thc4/working/aeon/db/ead/nnc-rb/ldpd_9313625_ead.xml

Error, filename must begin with dot slash at group/position: 1/132 value: /home/thc4/working/aeon/db/ead/nnc-rb/ldpd_4079081_ead.xml

Error, filename must begin with dot slash at group/position: 1/133 value: /home/thc4/working/aeon/db/ead/nnc-rb/ldpd_4079550_ead.xml

Error, filename must begin with dot slash at group/position: 1/134 value: /home/thc4/working/aeon/db/ead/nnc-rb/ldpd_4079011_ead.xml

Error, filename must begin with dot slash at group/position: 1/135 value: /home/thc4/working/aeon/db/ead/nnc-rb/ldpd_5505398_ead.xml

Error, filename must begin with dot slash at group/position: 1/136 value: /home/thc4/working/aeon/db/ead/nnc-rb/ldpd_4079244_ead.xml

Error, filename must begin with dot slash at group/position: 1/137 value: /home/thc4/working/aeon/db/ead/nnc-rb/ldpd_6915231_ead.xml

Error, filename must begin with dot slash at group/position: 1/138 value: /home/thc4/working/aeon/db/ead/nnc-rb/ldpd_4078472_ead.xml

Error, filename must begin with dot slash at group/position: 1/139 value: /home/thc4/working/aeon/db/ead/nnc-rb/ldpd_4078391_ead.xml

Error, filename must begin with dot slash at group/position: 1/140 value: /home/thc4/working/aeon/db/ead/nnc-rb/ldpd_8494934_ead.xml

Error, filename must begin with dot slash at group/position: 1/141 value: /home/thc4/working/aeon/db/ead/nnc-rb/ldpd_9189851_ead.xml

Error, filename must begin with dot slash at group/position: 1/142 value: /home/thc4/working/aeon/db/ead/nnc-rb/ldpd_4079532_ead.xml

Error, filename must begin with dot slash at group/position: 1/143 value: /home/thc4/working/aeon/db/ead/nnc-rb/ldpd_4079563_ead.xml

Error, filename must begin with dot slash at group/position: 1/144 value: /home/thc4/working/aeon/db/ead/nnc-rb/ldpd_4078518_ead.xml

Error, filename must begin with dot slash at group/position: 1/145 value: /home/thc4/working/aeon/db/ead/nnc-rb/ldpd_4079662_ead.xml

Error, filename must begin with dot slash at group/position: 1/146 value: /home/thc4/working/aeon/db/ead/nnc-rb/ldpd_4078357_ead.xml

Error, filename must begin with dot slash at group/position: 1/147 value: /home/thc4/working/aeon/db/ead/nnc-rb/ldpd_4078621_ead.xml

Error, filename must begin with dot slash at group/position: 1/148 value: /home/thc4/working/aeon/db/ead/nnc-rb/ldpd_4078917_ead.xml

Error, filename must begin with dot slash at group/position: 1/149 value: /home/thc4/working/aeon/db/ead/nnc-rb/ldpd_9070873_ead.xml

Error, filename must begin with dot slash at group/position: 1/150 value: /home/thc4/working/aeon/db/ead/nnc-rb/ldpd_6297800_ead.xml

Error, filename must begin with dot slash at group/position: 1/151 value: /home/thc4/working/aeon/db/ead/nnc-rb/ldpd_6764611_ead.xml

Error, filename must begin with dot slash at group/position: 1/152 value: /home/thc4/working/aeon/db/ead/nnc-rb/ldpd_4079318_ead.xml

Error, filename must begin with dot slash at group/position: 1/153 value: /home/thc4/working/aeon/db/ead/nnc-rb/ldpd_4079497_ead.xml

Error, filename must begin with dot slash at group/position: 1/154 value: /home/thc4/working/aeon/db/ead/nnc-rb/ldpd_8624918_ead.xml

Error, filename must begin with dot slash at group/position: 1/155 value: /home/thc4/working/aeon/db/ead/nnc-rb/ldpd_4079910_ead.xml

Error, filename must begin with dot slash at group/position: 1/156 value: /home/thc4/working/aeon/db/ead/nnc-rb/ldpd_4078527_ead.xml

Error, filename must begin with dot slash at group/position: 1/157 value: /home/thc4/working/aeon/db/ead/nnc-rb/ldpd_4079181_ead.xml

Error, filename must begin with dot slash at group/position: 1/158 value: /home/thc4/working/aeon/db/ead/nnc-rb/ldpd_4078517_ead.xml

Error, filename must begin with dot slash at group/position: 1/159 value: /home/thc4/working/aeon/db/ead/nnc-rb/ldpd_4078726_ead.xml

Error, filename must begin with dot slash at group/position: 1/160 value: /home/thc4/working/aeon/db/ead/nnc-rb/ldpd_4078406_ead.xml

Error, filename must begin with dot slash at group/position: 1/161 value: /home/thc4/working/aeon/db/ead/nnc-rb/ldpd_4079463_ead.xml

Error, filename must begin with dot slash at group/position: 1/162 value: /home/thc4/working/aeon/db/ead/nnc-rb/ldpd_4079854_ead.xml

Error, filename must begin with dot slash at group/position: 1/163 value: /home/thc4/working/aeon/db/ead/nnc-rb/ldpd_4079209_ead.xml

Error, filename must begin with dot slash at group/position: 1/164 value: /home/thc4/working/aeon/db/ead/nnc-rb/ldpd_4078349_ead.xml

Error, filename must begin with dot slash at group/position: 1/165 value: /home/thc4/working/aeon/db/ead/nnc-rb/ldpd_4079661_ead.xml

Error, filename must begin with dot slash at group/position: 1/166 value: /home/thc4/working/aeon/db/ead/nnc-rb/ldpd_4079655_ead.xml

Error, filename must begin with dot slash at group/position: 1/167 value: /home/thc4/working/aeon/db/ead/nnc-rb/ldpd_4078397_ead.xml

Error, filename must begin with dot slash at group/position: 1/168 value: /home/thc4/working/aeon/db/ead/nnc-rb/ldpd_6217591_ead.xml

Error, filename must begin with dot slash at group/position: 1/169 value: /home/thc4/working/aeon/db/ead/nnc-rb/ldpd_7351663_ead.xml

Error, filename must begin with dot slash at group/position: 1/170 value: /home/thc4/working/aeon/db/ead/nnc-rb/ldpd_5685745_ead.xml

Error, filename must begin with dot slash at group/position: 1/171 value: /home/thc4/working/aeon/db/ead/nnc-rb/ldpd_6910698_ead.xml

Error, filename must begin with dot slash at group/position: 1/172 value: /home/thc4/working/aeon/db/ead/nnc-rb/ldpd_4079368_ead.xml

Error, filename must begin with dot slash at group/position: 1/173 value: /home/thc4/working/aeon/db/ead/nnc-rb/ldpd_4079583_ead.xml

Error, filename must begin with dot slash at group/position: 1/174 value: /home/thc4/working/aeon/db/ead/nnc-rb/ldpd_4079663_ead.xml

Error, filename must begin with dot slash at group/position: 1/175 value: /home/thc4/working/aeon/db/ead/nnc-rb/ldpd_4079048_ead.xml

Error, filename must begin with dot slash at group/position: 1/176 value: /home/thc4/working/aeon/db/ead/nnc-rb/ldpd_4078722_ead.xml

Error, filename must begin with dot slash at group/position: 1/177 value: /home/thc4/working/aeon/db/ead/nnc-rb/ldpd_5712491_ead.xml

Error, filename must begin with dot slash at group/position: 1/178 value: /home/thc4/working/aeon/db/ead/nnc-rb/ldpd_4078729_ead.xml

Error, filename must begin with dot slash at group/position: 1/179 value: /home/thc4/working/aeon/db/ead/nnc-rb/ldpd_4079154_ead.xml

Error, filename must begin with dot slash at group/position: 1/180 value: /home/thc4/working/aeon/db/ead/nnc-rb/ldpd_4079642_ead.xml

Error, filename must begin with dot slash at group/position: 1/181 value: /home/thc4/working/aeon/db/ead/nnc-rb/ldpd_4078533_ead.xml

Error, filename must begin with dot slash at group/position: 1/182 value: /home/thc4/working/aeon/db/ead/nnc-rb/ldpd_4078611_ead.xml

Error, filename must begin with dot slash at group/position: 1/183 value: /home/thc4/working/aeon/db/ead/nnc-rb/ldpd_4079214_ead.xml

Error, filename must begin with dot slash at group/position: 1/184 value: /home/thc4/working/aeon/db/ead/nnc-rb/ldpd_7583223_ead.xml

Error, filename must begin with dot slash at group/position: 1/185 value: /home/thc4/working/aeon/db/ead/nnc-rb/ldpd_4078804_ead.xml

Error, filename must begin with dot slash at group/position: 1/186 value: /home/thc4/working/aeon/db/ead/nnc-rb/ldpd_4079066_ead.xml

Error, filename must begin with dot slash at group/position: 1/187 value: /home/thc4/working/aeon/db/ead/nnc-rb/ldpd_4079626_ead.xml

Error, filename must begin with dot slash at group/position: 1/188 value: /home/thc4/working/aeon/db/ead/nnc-rb/ldpd_5540444_ead.xml

Error, filename must begin with dot slash at group/position: 1/189 value: /home/thc4/working/aeon/db/ead/nnc-rb/ldpd_4078767_ead.xml

Error, filename must begin with dot slash at group/position: 1/190 value: /home/thc4/working/aeon/db/ead/nnc-rb/ldpd_4079656_ead.xml

Error, filename must begin with dot slash at group/position: 1/191 value: /home/thc4/working/aeon/db/ead/nnc-rb/ldpd_4078662_ead.xml

Error, filename must begin with dot slash at group/position: 1/192 value: /home/thc4/working/aeon/db/ead/nnc-rb/ldpd_4078932_ead.xml

Error, filename must begin with dot slash at group/position: 1/193 value: /home/thc4/working/aeon/db/ead/nnc-rb/ldpd_4078070_ead.xml

Error, filename must begin with dot slash at group/position: 1/194 value: /home/thc4/working/aeon/db/ead/nnc-rb/ldpd_5420059_ead.xml

Error, filename must begin with dot slash at group/position: 1/195 value: /home/thc4/working/aeon/db/ead/nnc-rb/ldpd_4078652_ead.xml

Error, filename must begin with dot slash at group/position: 1/196 value: /home/thc4/working/aeon/db/ead/nnc-rb/ldpd_4079084_ead.xml

Error, filename must begin with dot slash at group/position: 1/197 value: /home/thc4/working/aeon/db/ead/nnc-rb/ldpd_4078912_ead.xml

Error, filename must begin with dot slash at group/position: 1/198 value: /home/thc4/working/aeon/db/ead/nnc-rb/ldpd_4078661_ead.xml

Error, filename must begin with dot slash at group/position: 1/199 value: /home/thc4/working/aeon/db/ead/nnc-rb/ldpd_4079053_ead.xml

Error, filename must begin with dot slash at group/position: 1/200 value: /home/thc4/working/aeon/db/ead/nnc-rb/ldpd_4079511_ead.xml

Error, filename must begin with dot slash at group/position: 1/201 value: /home/thc4/working/aeon/db/ead/nnc-rb/ldpd_4079229_ead.xml

Error, filename must begin with dot slash at group/position: 1/202 value: /home/thc4/working/aeon/db/ead/nnc-rb/ldpd_4078367_ead.xml

Error, filename must begin with dot slash at group/position: 1/203 value: /home/thc4/working/aeon/db/ead/nnc-rb/ldpd_4078408_ead.xml

Error, filename must begin with dot slash at group/position: 1/204 value: /home/thc4/working/aeon/db/ead/nnc-rb/ldpd_4078782_ead.xml

Error, filename must begin with dot slash at group/position: 1/205 value: /home/thc4/working/aeon/db/ead/nnc-rb/ldpd_4223520_ead.xml

Error, filename must begin with dot slash at group/position: 1/206 value: /home/thc4/working/aeon/db/ead/nnc-rb/ldpd_4079190_ead.xml

Error, filename must begin with dot slash at group/position: 1/207 value: /home/thc4/working/aeon/db/ead/nnc-rb/ldpd_4078720_ead.xml

Error, filename must begin with dot slash at group/position: 1/208 value: /home/thc4/working/aeon/db/ead/nnc-rb/ldpd_4079313_ead.xml

Error, filename must begin with dot slash at group/position: 1/209 value: /home/thc4/working/aeon/db/ead/nnc-rb/ldpd_4078513_ead.xml

Error, filename must begin with dot slash at group/position: 1/210 value: /home/thc4/working/aeon/db/ead/nnc-rb/ldpd_4078732_ead.xml

Error, filename must begin with dot slash at group/position: 1/211 value: /home/thc4/working/aeon/db/ead/nnc-rb/ldpd_4078772_ead.xml

Error, filename must begin with dot slash at group/position: 1/212 value: /home/thc4/working/aeon/db/ead/nnc-rb/ldpd_6340435_ead.xml

Error, filename must begin with dot slash at group/position: 1/213 value: /home/thc4/working/aeon/db/ead/nnc-rb/ldpd_4079808_ead.xml

Error, filename must begin with dot slash at group/position: 1/214 value: /home/thc4/working/aeon/db/ead/nnc-rb/ldpd_4079014_ead.xml

Error, filename must begin with dot slash at group/position: 1/215 value: /home/thc4/working/aeon/db/ead/nnc-rb/ldpd_6909782_ead.xml

Error, filename must begin with dot slash at group/position: 1/216 value: /home/thc4/working/aeon/db/ead/nnc-rb/ldpd_4078361_ead.xml

Error, filename must begin with dot slash at group/position: 1/217 value: /home/thc4/working/aeon/db/ead/nnc-rb/ldpd_4078576_ead.xml

Error, filename must begin with dot slash at group/position: 1/218 value: /home/thc4/working/aeon/db/ead/nnc-rb/ldpd_4079263_ead.xml

Error, filename must begin with dot slash at group/position: 1/219 value: /home/thc4/working/aeon/db/ead/nnc-rb/ldpd_5420132_ead.xml

Error, filename must begin with dot slash at group/position: 1/220 value: /home/thc4/working/aeon/db/ead/nnc-rb/ldpd_4079751_ead.xml

Error, filename must begin with dot slash at group/position: 1/221 value: /home/thc4/working/aeon/db/ead/nnc-rb/ldpd_6607719_ead.xml

Error, filename must begin with dot slash at group/position: 1/222 value: /home/thc4/working/aeon/db/ead/nnc-rb/ldpd_4079146_ead.xml

Error, filename must begin with dot slash at group/position: 1/223 value: /home/thc4/working/aeon/db/ead/nnc-rb/ldpd_4078805_ead.xml

Error, filename must begin with dot slash at group/position: 1/224 value: /home/thc4/working/aeon/db/ead/nnc-rb/ldpd_4079538_ead.xml

Error, filename must begin with dot slash at group/position: 1/225 value: /home/thc4/working/aeon/db/ead/nnc-rb/ldpd_4078818_ead.xml

Error, filename must begin with dot slash at group/position: 1/226 value: /home/thc4/working/aeon/db/ead/nnc-rb/ldpd_4078384_ead.xml

Error, filename must begin with dot slash at group/position: 1/227 value: /home/thc4/working/aeon/db/ead/nnc-rb/ldpd_4079915_ead.xml

Error, filename must begin with dot slash at group/position: 1/228 value: /home/thc4/working/aeon/db/ead/nnc-rb/ldpd_6749110_ead.xml

Error, filename must begin with dot slash at group/position: 1/229 value: /home/thc4/working/aeon/db/ead/nnc-rb/ldpd_4078716_ead.xml

Error, filename must begin with dot slash at group/position: 1/230 value: /home/thc4/working/aeon/db/ead/nnc-rb/ldpd_4078412_ead.xml

Error, filename must begin with dot slash at group/position: 1/231 value: /home/thc4/working/aeon/db/ead/nnc-rb/ldpd_9025181_ead.xml

Error, filename must begin with dot slash at group/position: 1/232 value: /home/thc4/working/aeon/db/ead/nnc-rb/ldpd_4078688_ead.xml

Error, filename must begin with dot slash at group/position: 1/233 value: /home/thc4/working/aeon/db/ead/nnc-rb/ldpd_4079226_ead.xml

Error, filename must begin with dot slash at group/position: 1/234 value: /home/thc4/working/aeon/db/ead/nnc-rb/ldpd_4079423_ead.xml

Error, filename must begin with dot slash at group/position: 1/235 value: /home/thc4/working/aeon/db/ead/nnc-rb/ldpd_7094252_ead.xml

Error, filename must begin with dot slash at group/position: 1/236 value: /home/thc4/working/aeon/db/ead/nnc-rb/ldpd_4079812_ead.xml

Error, filename must begin with dot slash at group/position: 1/237 value: /home/thc4/working/aeon/db/ead/nnc-rb/ldpd_6259383_ead.xml

Error, filename must begin with dot slash at group/position: 1/238 value: /home/thc4/working/aeon/db/ead/nnc-rb/ldpd_4079737_ead.xml

Error, filename must begin with dot slash at group/position: 1/239 value: /home/thc4/working/aeon/db/ead/nnc-rb/ldpd_4078589_ead.xml

Error, filename must begin with dot slash at group/position: 1/240 value: /home/thc4/working/aeon/db/ead/nnc-rb/ldpd_4078877_ead.xml

Error, filename must begin with dot slash at group/position: 1/241 value: /home/thc4/working/aeon/db/ead/nnc-rb/ldpd_4078419_ead.xml

Error, filename must begin with dot slash at group/position: 1/242 value: /home/thc4/working/aeon/db/ead/nnc-rb/ldpd_4078547_ead.xml

Error, filename must begin with dot slash at group/position: 1/243 value: /home/thc4/working/aeon/db/ead/nnc-rb/ldpd_4078745_ead.xml

Error, filename must begin with dot slash at group/position: 1/244 value: /home/thc4/working/aeon/db/ead/nnc-rb/ldpd_4079730_ead.xml

Error, filename must begin with dot slash at group/position: 1/245 value: /home/thc4/working/aeon/db/ead/nnc-rb/ldpd_7341105_ead.xml

Error, filename must begin with dot slash at group/position: 1/246 value: /home/thc4/working/aeon/db/ead/nnc-rb/ldpd_4078556_ead.xml

Error, filename must begin with dot slash at group/position: 1/247 value: /home/thc4/working/aeon/db/ead/nnc-rb/ldpd_4078540_ead.xml

Error, filename must begin with dot slash at group/position: 1/248 value: /home/thc4/working/aeon/db/ead/nnc-rb/ldpd_4078516_ead.xml

Error, filename must begin with dot slash at group/position: 1/249 value: /home/thc4/working/aeon/db/ead/nnc-rb/ldpd_6911127_ead.xml

Error, filename must begin with dot slash at group/position: 1/250 value: /home/thc4/working/aeon/db/ead/nnc-rb/ldpd_4078710_ead.xml

Error, filename must begin with dot slash at group/position: 1/251 value: /home/thc4/working/aeon/db/ead/nnc-rb/ldpd_4078355_ead.xml

Error, filename must begin with dot slash at group/position: 1/252 value: /home/thc4/working/aeon/db/ead/nnc-rb/ldpd_5420150_ead.xml

Error, filename must begin with dot slash at group/position: 1/253 value: /home/thc4/working/aeon/db/ead/nnc-rb/ldpd_4078372_ead.xml

Error, filename must begin with dot slash at group/position: 1/254 value: /home/thc4/working/aeon/db/ead/nnc-rb/ldpd_6620304_ead.xml

Error, filename must begin with dot slash at group/position: 1/255 value: /home/thc4/working/aeon/db/ead/nnc-rb/ldpd_8720686_ead.xml

Error, filename must begin with dot slash at group/position: 1/256 value: /home/thc4/working/aeon/db/ead/nnc-rb/ldpd_4078385_ead.xml

Error, filename must begin with dot slash at group/position: 1/257 value: /home/thc4/working/aeon/db/ead/nnc-rb/ldpd_4079115_ead.xml

Error, filename must begin with dot slash at group/position: 1/258 value: /home/thc4/working/aeon/db/ead/nnc-rb/ldpd_6915026_ead.xml

Error, filename must begin with dot slash at group/position: 1/259 value: /home/thc4/working/aeon/db/ead/nnc-rb/ldpd_9286883_ead.xml

Error, filename must begin with dot slash at group/position: 1/260 value: /home/thc4/working/aeon/db/ead/nnc-rb/ldpd_4079554_ead.xml

Error, filename must begin with dot slash at group/position: 1/261 value: /home/thc4/working/aeon/db/ead/nnc-rb/ldpd_4079259_ead.xml

Error, filename must begin with dot slash at group/position: 1/262 value: /home/thc4/working/aeon/db/ead/nnc-rb/ldpd_4078792_ead.xml

Error, filename must begin with dot slash at group/position: 1/263 value: /home/thc4/working/aeon/db/ead/nnc-rb/ldpd_4079544_ead.xml

Error, filename must begin with dot slash at group/position: 1/264 value: /home/thc4/working/aeon/db/ead/nnc-rb/ldpd_4079300_ead.xml

Error, filename must begin with dot slash at group/position: 1/265 value: /home/thc4/working/aeon/db/ead/nnc-rb/ldpd_6894663_ead.xml

Error, filename must begin with dot slash at group/position: 1/266 value: /home/thc4/working/aeon/db/ead/nnc-rb/ldpd_4078574_ead.xml

Error, filename must begin with dot slash at group/position: 1/267 value: /home/thc4/working/aeon/db/ead/nnc-rb/ldpd_4079664_ead.xml

Error, filename must begin with dot slash at group/position: 1/268 value: /home/thc4/working/aeon/db/ead/nnc-rb/ldpd_4079643_ead.xml

Error, filename must begin with dot slash at group/position: 1/269 value: /home/thc4/working/aeon/db/ead/nnc-rb/ldpd_4079212_ead.xml

Error, filename must begin with dot slash at group/position: 1/270 value: /home/thc4/working/aeon/db/ead/nnc-rb/ldpd_4079018_ead.xml

Error, filename must begin with dot slash at group/position: 1/271 value: /home/thc4/working/aeon/db/ead/nnc-rb/ldpd_4079308_ead.xml

Error, filename must begin with dot slash at group/position: 1/272 value: /home/thc4/working/aeon/db/ead/nnc-rb/ldpd_4079747_ead.xml

Error, filename must begin with dot slash at group/position: 1/273 value: /home/thc4/working/aeon/db/ead/nnc-rb/ldpd_4079659_ead.xml

Error, filename must begin with dot slash at group/position: 1/274 value: /home/thc4/working/aeon/db/ead/nnc-rb/ldpd_6381639_ead.xml

Error, filename must begin with dot slash at group/position: 1/275 value: /home/thc4/working/aeon/db/ead/nnc-rb/ldpd_6909763_ead.xml

Error, filename must begin with dot slash at group/position: 1/276 value: /home/thc4/working/aeon/db/ead/nnc-rb/ldpd_4079501_ead.xml

Error, filename must begin with dot slash at group/position: 1/277 value: /home/thc4/working/aeon/db/ead/nnc-rb/ldpd_7447714_ead.xml

Error, filename must begin with dot slash at group/position: 1/278 value: /home/thc4/working/aeon/db/ead/nnc-rb/ldpd_7745809_ead.xml

Error, filename must begin with dot slash at group/position: 1/279 value: /home/thc4/working/aeon/db/ead/nnc-rb/ldpd_4078743_ead.xml

Error, filename must begin with dot slash at group/position: 1/280 value: /home/thc4/working/aeon/db/ead/nnc-rb/ldpd_6906282_ead.xml

Error, filename must begin with dot slash at group/position: 1/281 value: /home/thc4/working/aeon/db/ead/nnc-rb/ldpd_4078435_ead.xml

Error, filename must begin with dot slash at group/position: 1/282 value: /home/thc4/working/aeon/db/ead/nnc-rb/ldpd_7756884_ead.xml

Error, filename must begin with dot slash at group/position: 1/283 value: /home/thc4/working/aeon/db/ead/nnc-rb/ldpd_8040826_ead.xml

Error, filename must begin with dot slash at group/position: 1/284 value: /home/thc4/working/aeon/db/ead/nnc-rb/ldpd_9051624_ead.xml

Error, filename must begin with dot slash at group/position: 1/285 value: /home/thc4/working/aeon/db/ead/nnc-rb/ldpd_6378034_ead.xml

Error, filename must begin with dot slash at group/position: 1/286 value: /home/thc4/working/aeon/db/ead/nnc-rb/ldpd_4078447_ead.xml

Error, filename must begin with dot slash at group/position: 1/287 value: /home/thc4/working/aeon/db/ead/nnc-rb/ldpd_4078915_ead.xml

Error, filename must begin with dot slash at group/position: 1/288 value: /home/thc4/working/aeon/db/ead/nnc-rb/ldpd_4078375_ead.xml

Error, filename must begin with dot slash at group/position: 1/289 value: /home/thc4/working/aeon/db/ead/nnc-rb/ldpd_4079228_ead.xml

Error, filename must begin with dot slash at group/position: 1/290 value: /home/thc4/working/aeon/db/ead/nnc-rb/ldpd_6621724_ead.xml

Error, filename must begin with dot slash at group/position: 1/291 value: /home/thc4/working/aeon/db/ead/nnc-rb/ldpd_4079884_ead.xml

Error, filename must begin with dot slash at group/position: 1/292 value: /home/thc4/working/aeon/db/ead/nnc-rb/ldpd_4079628_ead.xml

Error, filename must begin with dot slash at group/position: 1/293 value: /home/thc4/working/aeon/db/ead/nnc-rb/ldpd_4079509_ead.xml

Error, filename must begin with dot slash at group/position: 1/294 value: /home/thc4/working/aeon/db/ead/nnc-rb/ldpd_4079553_ead.xml

Error, filename must begin with dot slash at group/position: 1/295 value: /home/thc4/working/aeon/db/ead/nnc-rb/ldpd_4079645_ead.xml

Error, filename must begin with dot slash at group/position: 1/296 value: /home/thc4/working/aeon/db/ead/nnc-rb/ldpd_4078881_ead.xml

Error, filename must begin with dot slash at group/position: 1/297 value: /home/thc4/working/aeon/db/ead/nnc-rb/ldpd_7749013_ead.xml

Error, filename must begin with dot slash at group/position: 1/298 value: /home/thc4/working/aeon/db/ead/nnc-rb/ldpd_4078843_ead.xml

Error, filename must begin with dot slash at group/position: 1/299 value: /home/thc4/working/aeon/db/ead/nnc-rb/ldpd_4079159_ead.xml

Error, filename must begin with dot slash at group/position: 1/300 value: /home/thc4/working/aeon/db/ead/nnc-rb/ldpd_4079920_ead.xml

Error, filename must begin with dot slash at group/position: 1/301 value: /home/thc4/working/aeon/db/ead/nnc-rb/ldpd_6984852_ead.xml

Error, filename must begin with dot slash at group/position: 1/302 value: /home/thc4/working/aeon/db/ead/nnc-rb/ldpd_4078675_ead.xml

Error, filename must begin with dot slash at group/position: 1/303 value: /home/thc4/working/aeon/db/ead/nnc-rb/ldpd_7831955_ead.xml

Error, filename must begin with dot slash at group/position: 1/304 value: /home/thc4/working/aeon/db/ead/nnc-rb/ldpd_4079170_ead.xml

Error, filename must begin with dot slash at group/position: 1/305 value: /home/thc4/working/aeon/db/ead/nnc-rb/ldpd_6217608_ead.xml

Error, filename must begin with dot slash at group/position: 1/306 value: /home/thc4/working/aeon/db/ead/nnc-rb/ldpd_4079198_ead.xml

Error, filename must begin with dot slash at group/position: 1/307 value: /home/thc4/working/aeon/db/ead/nnc-rb/ldpd_8858227_ead.xml

Error, filename must begin with dot slash at group/position: 1/308 value: /home/thc4/working/aeon/db/ead/nnc-rb/ldpd_4079049_ead.xml

Error, filename must begin with dot slash at group/position: 1/309 value: /home/thc4/working/aeon/db/ead/nnc-rb/ldpd_5012593_ead.xml

Error, filename must begin with dot slash at group/position: 1/310 value: /home/thc4/working/aeon/db/ead/nnc-rb/ldpd_4078522_ead.xml

Error, filename must begin with dot slash at group/position: 1/311 value: /home/thc4/working/aeon/db/ead/nnc-rb/ldpd_4079232_ead.xml

Error, filename must begin with dot slash at group/position: 1/312 value: /home/thc4/working/aeon/db/ead/nnc-rb/ldpd_6910705_ead.xml

Error, filename must begin with dot slash at group/position: 1/313 value: /home/thc4/working/aeon/db/ead/nnc-rb/ldpd_4079242_ead.xml

Error, filename must begin with dot slash at group/position: 1/314 value: /home/thc4/working/aeon/db/ead/nnc-rb/ldpd_4078386_ead.xml

Error, filename must begin with dot slash at group/position: 1/315 value: /home/thc4/working/aeon/db/ead/nnc-rb/ldpd_4078774_ead.xml

Error, filename must begin with dot slash at group/position: 1/316 value: /home/thc4/working/aeon/db/ead/nnc-rb/ldpd_4079354_ead.xml

Error, filename must begin with dot slash at group/position: 1/317 value: /home/thc4/working/aeon/db/ead/nnc-rb/ldpd_4079713_ead.xml

Error, filename must begin with dot slash at group/position: 1/318 value: /home/thc4/working/aeon/db/ead/nnc-rb/ldpd_4079301_ead.xml

Error, filename must begin with dot slash at group/position: 1/319 value: /home/thc4/working/aeon/db/ead/nnc-rb/ldpd_4078578_ead.xml

Error, filename must begin with dot slash at group/position: 1/320 value: /home/thc4/working/aeon/db/ead/nnc-rb/ldpd_6619504_ead.xml

Error, filename must begin with dot slash at group/position: 1/321 value: /home/thc4/working/aeon/db/ead/nnc-rb/ldpd_4078566_ead.xml

Error, filename must begin with dot slash at group/position: 1/322 value: /home/thc4/working/aeon/db/ead/nnc-rb/ldpd_4079041_ead.xml

Error, filename must begin with dot slash at group/position: 1/323 value: /home/thc4/working/aeon/db/ead/nnc-rb/ldpd_4078422_ead.xml

Error, filename must begin with dot slash at group/position: 1/324 value: /home/thc4/working/aeon/db/ead/nnc-rb/ldpd_6913670_ead.xml

Error, filename must begin with dot slash at group/position: 1/325 value: /home/thc4/working/aeon/db/ead/nnc-rb/ldpd_6093730_ead.xml

Error, filename must begin with dot slash at group/position: 1/326 value: /home/thc4/working/aeon/db/ead/nnc-rb/ldpd_4078858_ead.xml

Error, filename must begin with dot slash at group/position: 1/327 value: /home/thc4/working/aeon/db/ead/nnc-rb/ldpd_4079732_ead.xml

Error, filename must begin with dot slash at group/position: 1/328 value: /home/thc4/working/aeon/db/ead/nnc-rb/ldpd_4079561_ead.xml

Error, filename must begin with dot slash at group/position: 1/329 value: /home/thc4/working/aeon/db/ead/nnc-rb/ldpd_7748599_ead.xml

Error, filename must begin with dot slash at group/position: 1/330 value: /home/thc4/working/aeon/db/ead/nnc-rb/ldpd_6134809_ead.xml

Error, filename must begin with dot slash at group/position: 1/331 value: /home/thc4/working/aeon/db/ead/nnc-rb/ldpd_4078775_ead.xml

Error, filename must begin with dot slash at group/position: 1/332 value: /home/thc4/working/aeon/db/ead/nnc-rb/ldpd_4078060_ead.xml

Error, filename must begin with dot slash at group/position: 1/333 value: /home/thc4/working/aeon/db/ead/nnc-rb/ldpd_4079401_ead.xml

Error, filename must begin with dot slash at group/position: 1/334 value: /home/thc4/working/aeon/db/ead/nnc-rb/ldpd_4078649_ead.xml

Error, filename must begin with dot slash at group/position: 1/335 value: /home/thc4/working/aeon/db/ead/nnc-rb/ldpd_4078788_ead.xml

Error, filename must begin with dot slash at group/position: 1/336 value: /home/thc4/working/aeon/db/ead/nnc-rb/ldpd_4079125_ead.xml

Error, filename must begin with dot slash at group/position: 1/337 value: /home/thc4/working/aeon/db/ead/nnc-rb/ldpd_4079120_ead.xml

Error, filename must begin with dot slash at group/position: 1/338 value: /home/thc4/working/aeon/db/ead/nnc-rb/ldpd_6910556_ead.xml

Error, filename must begin with dot slash at group/position: 1/339 value: /home/thc4/working/aeon/db/ead/nnc-rb/ldpd_4079633_ead.xml

Error, filename must begin with dot slash at group/position: 1/340 value: /home/thc4/working/aeon/db/ead/nnc-rb/ldpd_4078598_ead.xml

Error, filename must begin with dot slash at group/position: 1/341 value: /home/thc4/working/aeon/db/ead/nnc-rb/ldpd_4079918_ead.xml

Error, filename must begin with dot slash at group/position: 1/342 value: /home/thc4/working/aeon/db/ead/nnc-rb/ldpd_4079388_ead.xml

Error, filename must begin with dot slash at group/position: 1/343 value: /home/thc4/working/aeon/db/ead/nnc-rb/ldpd_7468840_ead.xml

Error, filename must begin with dot slash at group/position: 1/344 value: /home/thc4/working/aeon/db/ead/nnc-rb/ldpd_6892024_ead.xml

Error, filename must begin with dot slash at group/position: 1/345 value: /home/thc4/working/aeon/db/ead/nnc-rb/ldpd_4078681_ead.xml

Error, filename must begin with dot slash at group/position: 1/346 value: /home/thc4/working/aeon/db/ead/nnc-rb/ldpd_4079161_ead.xml

Error, filename must begin with dot slash at group/position: 1/347 value: /home/thc4/working/aeon/db/ead/nnc-rb/ldpd_5321412_ead.xml

Error, filename must begin with dot slash at group/position: 1/348 value: /home/thc4/working/aeon/db/ead/nnc-rb/ldpd_4079821_ead.xml

Error, filename must begin with dot slash at group/position: 1/349 value: /home/thc4/working/aeon/db/ead/nnc-rb/ldpd_6909494_ead.xml

Error, filename must begin with dot slash at group/position: 1/350 value: /home/thc4/working/aeon/db/ead/nnc-rb/ldpd_4079433_ead.xml

Error, filename must begin with dot slash at group/position: 1/351 value: /home/thc4/working/aeon/db/ead/nnc-rb/ldpd_7469749_ead.xml

Error, filename must begin with dot slash at group/position: 1/352 value: /home/thc4/working/aeon/db/ead/nnc-rb/ldpd_4078654_ead.xml

Error, filename must begin with dot slash at group/position: 1/353 value: /home/thc4/working/aeon/db/ead/nnc-rb/ldpd_4079307_ead.xml

Error, filename must begin with dot slash at group/position: 1/354 value: /home/thc4/working/aeon/db/ead/nnc-rb/ldpd_4079278_ead.xml

Error, filename must begin with dot slash at group/position: 1/355 value: /home/thc4/working/aeon/db/ead/nnc-rb/ldpd_9025420_ead.xml

Error, filename must begin with dot slash at group/position: 1/356 value: /home/thc4/working/aeon/db/ead/nnc-rb/ldpd_4079731_ead.xml

Error, filename must begin with dot slash at group/position: 1/357 value: /home/thc4/working/aeon/db/ead/nnc-rb/ldpd_6865079_ead.xml

Error, filename must begin with dot slash at group/position: 1/358 value: /home/thc4/working/aeon/db/ead/nnc-rb/ldpd_5419398_ead.xml

Error, filename must begin with dot slash at group/position: 1/359 value: /home/thc4/working/aeon/db/ead/nnc-rb/ldpd_6910692_ead.xml

Error, filename must begin with dot slash at group/position: 1/360 value: /home/thc4/working/aeon/db/ead/nnc-rb/ldpd_4079103_ead.xml

Error, filename must begin with dot slash at group/position: 1/361 value: /home/thc4/working/aeon/db/ead/nnc-rb/ldpd_4078528_ead.xml

Error, filename must begin with dot slash at group/position: 1/362 value: /home/thc4/working/aeon/db/ead/nnc-rb/ldpd_4079527_ead.xml

Error, filename must begin with dot slash at group/position: 1/363 value: /home/thc4/working/aeon/db/ead/nnc-rb/ldpd_4079309_ead.xml

Error, filename must begin with dot slash at group/position: 1/364 value: /home/thc4/working/aeon/db/ead/nnc-rb/ldpd_4079816_ead.xml

Error, filename must begin with dot slash at group/position: 1/365 value: /home/thc4/working/aeon/db/ead/nnc-rb/ldpd_4079034_ead.xml

Error, filename must begin with dot slash at group/position: 1/366 value: /home/thc4/working/aeon/db/ead/nnc-rb/ldpd_4078786_ead.xml

Error, filename must begin with dot slash at group/position: 1/367 value: /home/thc4/working/aeon/db/ead/nnc-rb/ldpd_6799283_ead.xml

Error, filename must begin with dot slash at group/position: 1/368 value: /home/thc4/working/aeon/db/ead/nnc-rb/ldpd_4078684_ead.xml

Error, filename must begin with dot slash at group/position: 1/369 value: /home/thc4/working/aeon/db/ead/nnc-rb/ldpd_4079558_ead.xml

Error, filename must begin with dot slash at group/position: 1/370 value: /home/thc4/working/aeon/db/ead/nnc-rb/ldpd_7971726_ead.xml

Error, filename must begin with dot slash at group/position: 1/371 value: /home/thc4/working/aeon/db/ead/nnc-rb/ldpd_8339283_ead.xml

Error, filename must begin with dot slash at group/position: 1/372 value: /home/thc4/working/aeon/db/ead/nnc-rb/ldpd_4078530_ead.xml

Error, filename must begin with dot slash at group/position: 1/373 value: /home/thc4/working/aeon/db/ead/nnc-rb/ldpd_4078986_ead.xml

Error, filename must begin with dot slash at group/position: 1/374 value: /home/thc4/working/aeon/db/ead/nnc-rb/ldpd_4079675_ead.xml

Error, filename must begin with dot slash at group/position: 1/375 value: /home/thc4/working/aeon/db/ead/nnc-rb/ldpd_6910099_ead.xml

Error, filename must begin with dot slash at group/position: 1/376 value: /home/thc4/working/aeon/db/ead/nnc-rb/ldpd_4079484_ead.xml

Error, filename must begin with dot slash at group/position: 1/377 value: /home/thc4/working/aeon/db/ead/nnc-rb/ldpd_4078887_ead.xml

Error, filename must begin with dot slash at group/position: 1/378 value: /home/thc4/working/aeon/db/ead/nnc-rb/ldpd_4079683_ead.xml

Error, filename must begin with dot slash at group/position: 1/379 value: /home/thc4/working/aeon/db/ead/nnc-rb/ldpd_9576474_ead.xml

Error, filename must begin with dot slash at group/position: 1/380 value: /home/thc4/working/aeon/db/ead/nnc-rb/ldpd_6058659_ead.xml

Error, filename must begin with dot slash at group/position: 1/381 value: /home/thc4/working/aeon/db/ead/nnc-rb/ldpd_4079650_ead.xml

Error, filename must begin with dot slash at group/position: 1/382 value: /home/thc4/working/aeon/db/ead/nnc-rb/ldpd_4078645_ead.xml

Error, filename must begin with dot slash at group/position: 1/383 value: /home/thc4/working/aeon/db/ead/nnc-rb/ldpd_4078610_ead.xml

Error, filename must begin with dot slash at group/position: 1/384 value: /home/thc4/working/aeon/db/ead/nnc-rb/ldpd_4079379_ead.xml

Error, filename must begin with dot slash at group/position: 1/385 value: /home/thc4/working/aeon/db/ead/nnc-rb/ldpd_4078838_ead.xml

Error, filename must begin with dot slash at group/position: 1/386 value: /home/thc4/working/aeon/db/ead/nnc-rb/ldpd_4078938_ead.xml

Error, filename must begin with dot slash at group/position: 1/387 value: /home/thc4/working/aeon/db/ead/nnc-rb/ldpd_4078869_ead.xml

Error, filename must begin with dot slash at group/position: 1/388 value: /home/thc4/working/aeon/db/ead/nnc-rb/ldpd_4078828_ead.xml

Error, filename must begin with dot slash at group/position: 1/389 value: /home/thc4/working/aeon/db/ead/nnc-rb/ldpd_4078343_ead.xml

Error, filename must begin with dot slash at group/position: 1/390 value: /home/thc4/working/aeon/db/ead/nnc-rb/ldpd_4079006_ead.xml

Error, filename must begin with dot slash at group/position: 1/391 value: /home/thc4/working/aeon/db/ead/nnc-rb/ldpd_7467251_ead.xml

Error, filename must begin with dot slash at group/position: 1/392 value: /home/thc4/working/aeon/db/ead/nnc-rb/ldpd_4079316_ead.xml

Error, filename must begin with dot slash at group/position: 1/393 value: /home/thc4/working/aeon/db/ead/nnc-rb/ldpd_4079686_ead.xml

Error, filename must begin with dot slash at group/position: 1/394 value: /home/thc4/working/aeon/db/ead/nnc-rb/ldpd_4079802_ead.xml

Error, filename must begin with dot slash at group/position: 1/395 value: /home/thc4/working/aeon/db/ead/nnc-rb/ldpd_4078697_ead.xml

Error, filename must begin with dot slash at group/position: 1/396 value: /home/thc4/working/aeon/db/ead/nnc-rb/ldpd_4078380_ead.xml

Error, filename must begin with dot slash at group/position: 1/397 value: /home/thc4/working/aeon/db/ead/nnc-rb/ldpd_4078617_ead.xml

Error, filename must begin with dot slash at group/position: 1/398 value: /home/thc4/working/aeon/db/ead/nnc-rb/ldpd_6260282_ead.xml

Error, filename must begin with dot slash at group/position: 1/399 value: /home/thc4/working/aeon/db/ead/nnc-rb/ldpd_4078882_ead.xml

Error, filename must begin with dot slash at group/position: 1/400 value: /home/thc4/working/aeon/db/ead/nnc-rb/ldpd_4079641_ead.xml

Error, filename must begin with dot slash at group/position: 1/401 value: /home/thc4/working/aeon/db/ead/nnc-rb/ldpd_4078756_ead.xml

Error, filename must begin with dot slash at group/position: 1/402 value: /home/thc4/working/aeon/db/ead/nnc-rb/ldpd_4079387_ead.xml

Error, filename must begin with dot slash at group/position: 1/403 value: /home/thc4/working/aeon/db/ead/nnc-rb/ldpd_4078972_ead.xml

Error, filename must begin with dot slash at group/position: 1/404 value: /home/thc4/working/aeon/db/ead/nnc-rb/ldpd_4078559_ead.xml

Error, filename must begin with dot slash at group/position: 1/405 value: /home/thc4/working/aeon/db/ead/nnc-rb/ldpd_4078561_ead.xml

Error, filename must begin with dot slash at group/position: 1/406 value: /home/thc4/working/aeon/db/ead/nnc-rb/ldpd_4078425_ead.xml

Error, filename must begin with dot slash at group/position: 1/407 value: /home/thc4/working/aeon/db/ead/nnc-rb/ldpd_4079627_ead.xml

Error, filename must begin with dot slash at group/position: 1/408 value: /home/thc4/working/aeon/db/ead/nnc-rb/ldpd_4078982_ead.xml

Error, filename must begin with dot slash at group/position: 1/409 value: /home/thc4/working/aeon/db/ead/nnc-rb/ldpd_6913793_ead.xml

Error, filename must begin with dot slash at group/position: 1/410 value: /home/thc4/working/aeon/db/ead/nnc-rb/ldpd_4077412_ead.xml

Error, filename must begin with dot slash at group/position: 1/411 value: /home/thc4/working/aeon/db/ead/nnc-rb/ldpd_4078769_ead.xml

Error, filename must begin with dot slash at group/position: 1/412 value: /home/thc4/working/aeon/db/ead/nnc-rb/ldpd_4079459_ead.xml

Error, filename must begin with dot slash at group/position: 1/413 value: /home/thc4/working/aeon/db/ead/nnc-rb/ldpd_4079208_ead.xml

Error, filename must begin with dot slash at group/position: 1/414 value: /home/thc4/working/aeon/db/ead/nnc-rb/ldpd_4078866_ead.xml

Error, filename must begin with dot slash at group/position: 1/415 value: /home/thc4/working/aeon/db/ead/nnc-rb/ldpd_4079830_ead.xml

Error, filename must begin with dot slash at group/position: 1/416 value: /home/thc4/working/aeon/db/ead/nnc-rb/ldpd_5644162_ead.xml

Error, filename must begin with dot slash at group/position: 1/417 value: /home/thc4/working/aeon/db/ead/nnc-rb/ldpd_4078849_ead.xml

Error, filename must begin with dot slash at group/position: 1/418 value: /home/thc4/working/aeon/db/ead/nnc-rb/ldpd_8429461_ead.xml

Error, filename must begin with dot slash at group/position: 1/419 value: /home/thc4/working/aeon/db/ead/nnc-rb/ldpd_4079299_ead.xml

Error, filename must begin with dot slash at group/position: 1/420 value: /home/thc4/working/aeon/db/ead/nnc-rb/ldpd_4079192_ead.xml

Error, filename must begin with dot slash at group/position: 1/421 value: /home/thc4/working/aeon/db/ead/nnc-rb/ldpd_4078429_ead.xml

Error, filename must begin with dot slash at group/position: 1/422 value: /home/thc4/working/aeon/db/ead/nnc-rb/ldpd_4078544_ead.xml

Error, filename must begin with dot slash at group/position: 1/423 value: /home/thc4/working/aeon/db/ead/nnc-rb/ldpd_8973986_ead.xml

Error, filename must begin with dot slash at group/position: 1/424 value: /home/thc4/working/aeon/db/ead/nnc-rb/ldpd_4079519_ead.xml

Error, filename must begin with dot slash at group/position: 1/425 value: /home/thc4/working/aeon/db/ead/nnc-rb/ldpd_4079249_ead.xml

Error, filename must begin with dot slash at group/position: 1/426 value: /home/thc4/working/aeon/db/ead/nnc-rb/ldpd_4079398_ead.xml

Error, filename must begin with dot slash at group/position: 1/427 value: /home/thc4/working/aeon/db/ead/nnc-rb/ldpd_4078587_ead.xml

Error, filename must begin with dot slash at group/position: 1/428 value: /home/thc4/working/aeon/db/ead/nnc-rb/ldpd_4079099_ead.xml

Error, filename must begin with dot slash at group/position: 1/429 value: /home/thc4/working/aeon/db/ead/nnc-rb/ldpd_4078453_ead.xml

Error, filename must begin with dot slash at group/position: 1/430 value: /home/thc4/working/aeon/db/ead/nnc-rb/ldpd_8857048_ead.xml

Error, filename must begin with dot slash at group/position: 1/431 value: /home/thc4/working/aeon/db/ead/nnc-rb/ldpd_4078613_ead.xml

Error, filename must begin with dot slash at group/position: 1/432 value: /home/thc4/working/aeon/db/ead/nnc-rb/ldpd_4078683_ead.xml

Error, filename must begin with dot slash at group/position: 1/433 value: /home/thc4/working/aeon/db/ead/nnc-rb/ldpd_4079762_ead.xml

Error, filename must begin with dot slash at group/position: 1/434 value: /home/thc4/working/aeon/db/ead/nnc-rb/ldpd_4078750_ead.xml

Error, filename must begin with dot slash at group/position: 1/435 value: /home/thc4/working/aeon/db/ead/nnc-rb/ldpd_6909765_ead.xml

Error, filename must begin with dot slash at group/position: 1/436 value: /home/thc4/working/aeon/db/ead/nnc-rb/ldpd_4078651_ead.xml

Error, filename must begin with dot slash at group/position: 1/437 value: /home/thc4/working/aeon/db/ead/nnc-rb/ldpd_4079653_ead.xml

Error, filename must begin with dot slash at group/position: 1/438 value: /home/thc4/working/aeon/db/ead/nnc-rb/ldpd_5018097_ead.xml

Error, filename must begin with dot slash at group/position: 1/439 value: /home/thc4/working/aeon/db/ead/nnc-rb/ldpd_4079462_ead.xml

Error, filename must begin with dot slash at group/position: 1/440 value: /home/thc4/working/aeon/db/ead/nnc-rb/ldpd_6340481_ead.xml

Error, filename must begin with dot slash at group/position: 1/441 value: /home/thc4/working/aeon/db/ead/nnc-rb/ldpd_7818783_ead.xml

Error, filename must begin with dot slash at group/position: 1/442 value: /home/thc4/working/aeon/db/ead/nnc-rb/ldpd_4078739_ead.xml

Error, filename must begin with dot slash at group/position: 1/443 value: /home/thc4/working/aeon/db/ead/nnc-rb/ldpd_4079151_ead.xml

Error, filename must begin with dot slash at group/position: 1/444 value: /home/thc4/working/aeon/db/ead/nnc-rb/ldpd_4079576_ead.xml

Error, filename must begin with dot slash at group/position: 1/445 value: /home/thc4/working/aeon/db/ead/nnc-rb/ldpd_4078210_ead.xml

Error, filename must begin with dot slash at group/position: 1/446 value: /home/thc4/working/aeon/db/ead/nnc-rb/ldpd_4078588_ead.xml

Error, filename must begin with dot slash at group/position: 1/447 value: /home/thc4/working/aeon/db/ead/nnc-rb/ldpd_6915380_ead.xml

Error, filename must begin with dot slash at group/position: 1/448 value: /home/thc4/working/aeon/db/ead/nnc-rb/ldpd_4079025_ead.xml

Error, filename must begin with dot slash at group/position: 1/449 value: /home/thc4/working/aeon/db/ead/nnc-rb/ldpd_4078580_ead.xml

Error, filename must begin with dot slash at group/position: 1/450 value: /home/thc4/working/aeon/db/ead/nnc-rb/ldpd_4078994_ead.xml

Error, filename must begin with dot slash at group/position: 1/451 value: /home/thc4/working/aeon/db/ead/nnc-rb/ldpd_6262245_ead.xml

Error, filename must begin with dot slash at group/position: 1/452 value: /home/thc4/working/aeon/db/ead/nnc-rb/ldpd_4078627_ead.xml

Error, filename must begin with dot slash at group/position: 1/453 value: /home/thc4/working/aeon/db/ead/nnc-rb/ldpd_4078822_ead.xml

Error, filename must begin with dot slash at group/position: 1/454 value: /home/thc4/working/aeon/db/ead/nnc-rb/ldpd_4078369_ead.xml

Error, filename must begin with dot slash at group/position: 1/455 value: /home/thc4/working/aeon/db/ead/nnc-rb/ldpd_4079451_ead.xml

Error, filename must begin with dot slash at group/position: 1/456 value: /home/thc4/working/aeon/db/ead/nnc-rb/ldpd_4078433_ead.xml

Error, filename must begin with dot slash at group/position: 1/457 value: /home/thc4/working/aeon/db/ead/nnc-rb/ldpd_4079697_ead.xml

Error, filename must begin with dot slash at group/position: 1/458 value: /home/thc4/working/aeon/db/ead/nnc-rb/ldpd_4078687_ead.xml

Error, filename must begin with dot slash at group/position: 1/459 value: /home/thc4/working/aeon/db/ead/nnc-rb/ldpd_6915494_ead.xml

Error, filename must begin with dot slash at group/position: 1/460 value: /home/thc4/working/aeon/db/ead/nnc-rb/ldpd_4079022_ead.xml

Error, filename must begin with dot slash at group/position: 1/461 value: /home/thc4/working/aeon/db/ead/nnc-rb/ldpd_5644461_ead.xml

Error, filename must begin with dot slash at group/position: 1/462 value: /home/thc4/working/aeon/db/ead/nnc-rb/ldpd_4079644_ead.xml

Error, filename must begin with dot slash at group/position: 1/463 value: /home/thc4/working/aeon/db/ead/nnc-rb/ldpd_4079630_ead.xml

Error, filename must begin with dot slash at group/position: 1/464 value: /home/thc4/working/aeon/db/ead/nnc-rb/ldpd_4078389_ead.xml

Error, filename must begin with dot slash at group/position: 1/465 value: /home/thc4/working/aeon/db/ead/nnc-rb/ldpd_4079832_ead.xml

Error, filename must begin with dot slash at group/position: 1/466 value: /home/thc4/working/aeon/db/ead/nnc-rb/ldpd_4078601_ead.xml

Error, filename must begin with dot slash at group/position: 1/467 value: /home/thc4/working/aeon/db/ead/nnc-rb/ldpd_4079758_ead.xml

Error, filename must begin with dot slash at group/position: 1/468 value: /home/thc4/working/aeon/db/ead/nnc-rb/ldpd_4079547_ead.xml

Error, filename must begin with dot slash at group/position: 1/469 value: /home/thc4/working/aeon/db/ead/nnc-rb/ldpd_6892031_ead.xml

Error, filename must begin with dot slash at group/position: 1/470 value: /home/thc4/working/aeon/db/ead/nnc-rb/ldpd_4078568_ead.xml

Error, filename must begin with dot slash at group/position: 1/471 value: /home/thc4/working/aeon/db/ead/nnc-rb/ldpd_4079172_aed.xml

Error, filename must begin with dot slash at group/position: 1/472 value: /home/thc4/working/aeon/db/ead/nnc-rb/ldpd_4079353_ead.xml

Error, filename must begin with dot slash at group/position: 1/473 value: /home/thc4/working/aeon/db/ead/nnc-rb/ldpd_8328524_ead.xml

Error, filename must begin with dot slash at group/position: 1/474 value: /home/thc4/working/aeon/db/ead/nnc-rb/ldpd_4078604_ead.xml

Error, filename must begin with dot slash at group/position: 1/475 value: /home/thc4/working/aeon/db/ead/nnc-rb/ldpd_4078950_ead.xml

Error, filename must begin with dot slash at group/position: 1/476 value: /home/thc4/working/aeon/db/ead/nnc-rb/ldpd_9681555_ead.xml

Error, filename must begin with dot slash at group/position: 1/477 value: /home/thc4/working/aeon/db/ead/nnc-rb/ldpd_4078947_ead.xml

Error, filename must begin with dot slash at group/position: 1/478 value: /home/thc4/working/aeon/db/ead/nnc-rb/ldpd_4078452_ead.xml

Error, filename must begin with dot slash at group/position: 1/479 value: /home/thc4/working/aeon/db/ead/nnc-rb/ldpd_4079522_ead.xml

Error, filename must begin with dot slash at group/position: 1/480 value: /home/thc4/working/aeon/db/ead/nnc-rb/ldpd_4079365_ead.xml

Error, filename must begin with dot slash at group/position: 1/481 value: /home/thc4/working/aeon/db/ead/nnc-rb/ldpd_6761350_ead.xml

Error, filename must begin with dot slash at group/position: 1/482 value: /home/thc4/working/aeon/db/ead/nnc-rb/ldpd_9472267_ead.xml

Error, filename must begin with dot slash at group/position: 1/483 value: /home/thc4/working/aeon/db/ead/nnc-rb/ldpd_4078579_ead.xml

Error, filename must begin with dot slash at group/position: 1/484 value: /home/thc4/working/aeon/db/ead/nnc-rb/ldpd_4079322_ead.xml

Error, filename must begin with dot slash at group/position: 1/485 value: /home/thc4/working/aeon/db/ead/nnc-rb/ldpd_6269848_ead.xml

Error, filename must begin with dot slash at group/position: 1/486 value: /home/thc4/working/aeon/db/ead/nnc-rb/ldpd_4078489_ead.xml

Error, filename must begin with dot slash at group/position: 1/487 value: /home/thc4/working/aeon/db/ead/nnc-rb/ldpd_4079503_ead.xml

Error, filename must begin with dot slash at group/position: 1/488 value: /home/thc4/working/aeon/db/ead/nnc-rb/ldpd_4078666_ead.xml

Error, filename must begin with dot slash at group/position: 1/489 value: /home/thc4/working/aeon/db/ead/nnc-rb/ldpd_8386417_ead.xml

Error, filename must begin with dot slash at group/position: 1/490 value: /home/thc4/working/aeon/db/ead/nnc-rb/ldpd_4078348_ead.xml

Error, filename must begin with dot slash at group/position: 1/491 value: /home/thc4/working/aeon/db/ead/nnc-rb/ldpd_4078715_ead.xml

Error, filename must begin with dot slash at group/position: 1/492 value: /home/thc4/working/aeon/db/ead/nnc-rb/ldpd_4078358_ead.xml

Error, filename must begin with dot slash at group/position: 1/493 value: /home/thc4/working/aeon/db/ead/nnc-rb/ldpd_4079512_ead.xml

Error, filename must begin with dot slash at group/position: 1/494 value: /home/thc4/working/aeon/db/ead/nnc-rb/ldpd_4077771_ead.xml

Error, filename must begin with dot slash at group/position: 1/495 value: /home/thc4/working/aeon/db/ead/nnc-rb/ldpd_4079449_ead.xml

Error, filename must begin with dot slash at group/position: 1/496 value: /home/thc4/working/aeon/db/ead/nnc-rb/ldpd_5420020_ead.xml

Error, filename must begin with dot slash at group/position: 1/497 value: /home/thc4/working/aeon/db/ead/nnc-rb/ldpd_4078446_ead.xml

Error, filename must begin with dot slash at group/position: 1/498 value: /home/thc4/working/aeon/db/ead/nnc-rb/ldpd_6892009_ead.xml

Error, filename must begin with dot slash at group/position: 1/499 value: /home/thc4/working/aeon/db/ead/nnc-rb/ldpd_4078977_ead.xml

Error, filename must begin with dot slash at group/position: 1/500 value: /home/thc4/working/aeon/db/ead/nnc-rb/ldpd_4079900_ead.xml

Error, filename must begin with dot slash at group/position: 2/1 value: /home/thc4/working/aeon/db/ead/nnc-rb/ldpd_4079733_ead.xml

Error, filename must begin with dot slash at group/position: 2/2 value: /home/thc4/working/aeon/db/ead/nnc-rb/ldpd_4079290_ead.xml

Error, filename must begin with dot slash at group/position: 2/3 value: /home/thc4/working/aeon/db/ead/nnc-rb/ldpd_9577639_ead.xml

Error, filename must begin with dot slash at group/position: 2/4 value: /home/thc4/working/aeon/db/ead/nnc-rb/ldpd_4079892_ead.xml

Error, filename must begin with dot slash at group/position: 2/5 value: /home/thc4/working/aeon/db/ead/nnc-rb/ldpd_6898059_ead.xml

Error, filename must begin with dot slash at group/position: 2/6 value: /home/thc4/working/aeon/db/ead/nnc-rb/ldpd_4078388_ead.xml

Error, filename must begin with dot slash at group/position: 2/7 value: /home/thc4/working/aeon/db/ead/nnc-rb/ldpd_4078698_ead.xml

Error, filename must begin with dot slash at group/position: 2/8 value: /home/thc4/working/aeon/db/ead/nnc-rb/ldpd_4079350_ead.xml

Error, filename must begin with dot slash at group/position: 2/9 value: /home/thc4/working/aeon/db/ead/nnc-rb/ldpd_6930622_ead.xml

Error, filename must begin with dot slash at group/position: 2/10 value: /home/thc4/working/aeon/db/ead/nnc-rb/ldpd_4079326_ead.xml

Error, filename must begin with dot slash at group/position: 2/11 value: /home/thc4/working/aeon/db/ead/nnc-rb/ldpd_4078664_ead.xml

Error, filename must begin with dot slash at group/position: 2/12 value: /home/thc4/working/aeon/db/ead/nnc-rb/ldpd_4078648_ead.xml

Error, filename must begin with dot slash at group/position: 2/13 value: /home/thc4/working/aeon/db/ead/nnc-rb/ldpd_9746888_ead.xml

Error, filename must begin with dot slash at group/position: 2/14 value: /home/thc4/working/aeon/db/ead/nnc-rb/ldpd_4078690_ead.xml

Error, filename must begin with dot slash at group/position: 2/15 value: /home/thc4/working/aeon/db/ead/nnc-rb/ldpd_4079473_ead.xml

Error, filename must begin with dot slash at group/position: 2/16 value: /home/thc4/working/aeon/db/ead/nnc-rb/ldpd_6796315_ead.xml

Error, filename must begin with dot slash at group/position: 2/17 value: /home/thc4/working/aeon/db/ead/nnc-rb/ldpd_4079541_ead.xml

Error, filename must begin with dot slash at group/position: 2/18 value: /home/thc4/working/aeon/db/ead/nnc-rb/ldpd_9006537_ead.xml

Error, filename must begin with dot slash at group/position: 2/19 value: /home/thc4/working/aeon/db/ead/nnc-rb/ldpd_4079684_ead.xml

Error, filename must begin with dot slash at group/position: 2/20 value: /home/thc4/working/aeon/db/ead/nnc-rb/ldpd_6911309_ead.xml

Error, filename must begin with dot slash at group/position: 2/21 value: /home/thc4/working/aeon/db/ead/nnc-rb/ldpd_7885692_ead.xml

Error, filename must begin with dot slash at group/position: 2/22 value: /home/thc4/working/aeon/db/ead/nnc-rb/ldpd_4078724_ead.xml

Error, filename must begin with dot slash at group/position: 2/23 value: /home/thc4/working/aeon/db/ead/nnc-rb/ldpd_8683406_ead.xml

Error, filename must begin with dot slash at group/position: 2/24 value: /home/thc4/working/aeon/db/ead/nnc-rb/ldpd_4079440_ead.xml

Error, filename must begin with dot slash at group/position: 2/25 value: /home/thc4/working/aeon/db/ead/nnc-rb/ldpd_6297812_ead.xml

Error, filename must begin with dot slash at group/position: 2/26 value: /home/thc4/working/aeon/db/ead/nnc-rb/ldpd_4078600_ead.xml

Error, filename must begin with dot slash at group/position: 2/27 value: /home/thc4/working/aeon/db/ead/nnc-rb/ldpd_4079391_ead.xml

Error, filename must begin with dot slash at group/position: 2/28 value: /home/thc4/working/aeon/db/ead/nnc-rb/ldpd_4078679_ead.xml

Error, filename must begin with dot slash at group/position: 2/29 value: /home/thc4/working/aeon/db/ead/nnc-rb/ldpd_4078565_ead.xml

Error, filename must begin with dot slash at group/position: 2/30 value: /home/thc4/working/aeon/db/ead/nnc-rb/ldpd_4078990_ead.xml

Error, filename must begin with dot slash at group/position: 2/31 value: /home/thc4/working/aeon/db/ead/nnc-rb/ldpd_6881813_ead.xml

Error, filename must begin with dot slash at group/position: 2/32 value: /home/thc4/working/aeon/db/ead/nnc-rb/ldpd_6467565_ead.xml

Error, filename must begin with dot slash at group/position: 2/33 value: /home/thc4/working/aeon/db/ead/nnc-rb/ldpd_4078728_ead.xml

Error, filename must begin with dot slash at group/position: 2/34 value: /home/thc4/working/aeon/db/ead/nnc-rb/ldpd_4079341_ead.xml

Error, filename must begin with dot slash at group/position: 2/35 value: /home/thc4/working/aeon/db/ead/nnc-rb/__contents__.xml

Error, filename must begin with dot slash at group/position: 2/36 value: /home/thc4/working/aeon/db/ead/nnc-rb/ldpd_4078637_ead.xml

Error, filename must begin with dot slash at group/position: 2/37 value: /home/thc4/working/aeon/db/ead/nnc-rb/ldpd_4079521_ead.xml

Error, filename must begin with dot slash at group/position: 2/38 value: /home/thc4/working/aeon/db/ead/nnc-rb/ldpd_7459850_ead.xml

Error, filename must begin with dot slash at group/position: 2/39 value: /home/thc4/working/aeon/db/ead/nnc-rb/ldpd_4078458_ead.xml

Error, filename must begin with dot slash at group/position: 2/40 value: /home/thc4/working/aeon/db/ead/nnc-rb/ldpd_4078376_ead.xml

Error, filename must begin with dot slash at group/position: 2/41 value: /home/thc4/working/aeon/db/ead/nnc-rb/ldpd_4079362_ead.xml

Error, filename must begin with dot slash at group/position: 2/42 value: /home/thc4/working/aeon/db/ead/nnc-rb/styles/__contents__.xml

Error, filename must begin with dot slash at group/position: 2/43 value: /home/thc4/working/aeon/db/ead/nnc-rb/ldpd_4079487_ead.xml

Error, filename must begin with dot slash at group/position: 2/44 value: /home/thc4/working/aeon/db/ead/nnc-rb/ldpd_9707342_ead.xml

Error, filename must begin with dot slash at group/position: 2/45 value: /home/thc4/working/aeon/db/ead/nnc-rb/ldpd_4079814_ead.xml

Error, filename must begin with dot slash at group/position: 2/46 value: /home/thc4/working/aeon/db/ead/nnc-rb/ldpd_4079067_ead.xml

Error, filename must begin with dot slash at group/position: 2/47 value: /home/thc4/working/aeon/db/ead/nnc-rb/ldpd_4079590_ead.xml

Error, filename must begin with dot slash at group/position: 2/48 value: /home/thc4/working/aeon/db/ead/nnc-rb/ldpd_4077408_ead.xml

Error, filename must begin with dot slash at group/position: 2/49 value: /home/thc4/working/aeon/db/ead/nnc-rb/ldpd_4079284_ead.xml

Error, filename must begin with dot slash at group/position: 2/50 value: /home/thc4/working/aeon/db/ead/nnc-rb/ldpd_5802117_ead.xml

Error, filename must begin with dot slash at group/position: 2/51 value: /home/thc4/working/aeon/db/ead/nnc-rb/ldpd_6910238_ead.xml

Error, filename must begin with dot slash at group/position: 2/52 value: /home/thc4/working/aeon/db/ead/nnc-rb/ldpd_6909647_ead.xml

Error, filename must begin with dot slash at group/position: 2/53 value: /home/thc4/working/aeon/db/ead/nnc-rb/ldpd_7906287_ead.xml

Error, filename must begin with dot slash at group/position: 2/54 value: /home/thc4/working/aeon/db/ead/nnc-rb/ldpd_4079109_ead.xml

Error, filename must begin with dot slash at group/position: 2/55 value: /home/thc4/working/aeon/db/ead/nnc-rb/ldpd_6909466_ead.xml

Error, filename must begin with dot slash at group/position: 2/56 value: /home/thc4/working/aeon/db/ead/nnc-rb/ldpd_4079831_ead.xml

Error, filename must begin with dot slash at group/position: 2/57 value: /home/thc4/working/aeon/db/ead/nnc-rb/ldpd_4079136_ead.xml

Error, filename must begin with dot slash at group/position: 2/58 value: /home/thc4/working/aeon/db/ead/nnc-rb/ldpd_4079285_ead.xml

Error, filename must begin with dot slash at group/position: 2/59 value: /home/thc4/working/aeon/db/ead/nnc-rb/ldpd_4078413_ead.xml

Error, filename must begin with dot slash at group/position: 2/60 value: /home/thc4/working/aeon/db/ead/nnc-rb/ldpd_4078646_ead.xml

Error, filename must begin with dot slash at group/position: 2/61 value: /home/thc4/working/aeon/db/ead/nnc-rb/ldpd_4079677_ead.xml

Error, filename must begin with dot slash at group/position: 2/62 value: /home/thc4/working/aeon/db/ead/nnc-rb/ldpd_5010936_ead.xml

Error, filename must begin with dot slash at group/position: 2/63 value: /home/thc4/working/aeon/db/ead/nnc-rb/ldpd_4079185_ead.xml

Error, filename must begin with dot slash at group/position: 2/64 value: /home/thc4/working/aeon/db/ead/nnc-rb/ldpd_4078846_ead.xml

Error, filename must begin with dot slash at group/position: 2/65 value: /home/thc4/working/aeon/db/ead/nnc-rb/ldpd_4078512_ead.xml

Error, filename must begin with dot slash at group/position: 2/66 value: /home/thc4/working/aeon/db/ead/nnc-rb/ldpd_4079531_ead.xml

Error, filename must begin with dot slash at group/position: 2/67 value: /home/thc4/working/aeon/db/ead/nnc-rb/ldpd_4079637_ead.xml

Error, filename must begin with dot slash at group/position: 2/68 value: /home/thc4/working/aeon/db/ead/nnc-rb/ldpd_4078770_ead.xml

Error, filename must begin with dot slash at group/position: 2/69 value: /home/thc4/working/aeon/db/ead/nnc-rb/ldpd_4078599_ead.xml

Error, filename must begin with dot slash at group/position: 2/70 value: /home/thc4/working/aeon/db/ead/nnc-rb/ldpd_4079490_ead.xml

Error, filename must begin with dot slash at group/position: 2/71 value: /home/thc4/working/aeon/db/ead/nnc-rb/ldpd_4079682_ead.xml

Error, filename must begin with dot slash at group/position: 2/72 value: /home/thc4/working/aeon/db/ead/nnc-rb/ldpd_6856662_ead.xml

Error, filename must begin with dot slash at group/position: 2/73 value: /home/thc4/working/aeon/db/ead/nnc-rb/ldpd_4078423_ead.xml

Error, filename must begin with dot slash at group/position: 2/74 value: /home/thc4/working/aeon/db/ead/nnc-rb/ldpd_4079252_ead.xml

Error, filename must begin with dot slash at group/position: 2/75 value: /home/thc4/working/aeon/db/ead/nnc-rb/ldpd_5420146_ead.xml

Error, filename must begin with dot slash at group/position: 2/76 value: /home/thc4/working/aeon/db/ead/nnc-rb/ldpd_5012635_ead.xml

Error, filename must begin with dot slash at group/position: 2/77 value: /home/thc4/working/aeon/db/ead/nnc-rb/ldpd_4079425_ead.xml

Error, filename must begin with dot slash at group/position: 2/78 value: /home/thc4/working/aeon/db/ead/nnc-rb/ldpd_6933410_ead.xml

Error, filename must begin with dot slash at group/position: 2/79 value: /home/thc4/working/aeon/db/ead/nnc-rb/ldpd_4078773_ead.xml

Error, filename must begin with dot slash at group/position: 2/80 value: /home/thc4/working/aeon/db/ead/nnc-rb/ldpd_6256785_ead.xml

Error, filename must begin with dot slash at group/position: 2/81 value: /home/thc4/working/aeon/db/ead/nnc-rb/ldpd_4079917_ead.xml

Error, filename must begin with dot slash at group/position: 2/82 value: /home/thc4/working/aeon/db/ead/nnc-rb/ldpd_4079056_ead.xml

Error, filename must begin with dot slash at group/position: 2/83 value: /home/thc4/working/aeon/db/ead/nnc-rb/ldpd_4078585_ead.xml

Error, filename must begin with dot slash at group/position: 2/84 value: /home/thc4/working/aeon/db/ead/nnc-rb/ldpd_5706615_ead.xml

Error, filename must begin with dot slash at group/position: 2/85 value: /home/thc4/working/aeon/db/ead/nnc-rb/ldpd_5490814_ead.xml

Error, filename must begin with dot slash at group/position: 2/86 value: /home/thc4/working/aeon/db/ead/nnc-rb/ldpd_4079317_ead.xml

Error, filename must begin with dot slash at group/position: 2/87 value: /home/thc4/working/aeon/db/ead/nnc-rb/ldpd_4077838_ead.xml

Error, filename must begin with dot slash at group/position: 2/88 value: /home/thc4/working/aeon/db/ead/nnc-rb/ldpd_4078939_ead.xml

Error, filename must begin with dot slash at group/position: 2/89 value: /home/thc4/working/aeon/db/ead/nnc-rb/ldpd_9431071_ead.xml

Error, filename must begin with dot slash at group/position: 2/90 value: /home/thc4/working/aeon/db/ead/nnc-rb/ldpd_6913725_ead.xml

Error, filename must begin with dot slash at group/position: 2/91 value: /home/thc4/working/aeon/db/ead/nnc-rb/ldpd_7953908_ead.xml

Error, filename must begin with dot slash at group/position: 2/92 value: /home/thc4/working/aeon/db/ead/nnc-rb/ldpd_4079598_ead.xml

Error, filename must begin with dot slash at group/position: 2/93 value: /home/thc4/working/aeon/db/ead/nnc-rb/ldpd_4078535_ead.xml

Error, filename must begin with dot slash at group/position: 2/94 value: /home/thc4/working/aeon/db/ead/nnc-rb/ldpd_4079647_ead.xml

Error, filename must begin with dot slash at group/position: 2/95 value: /home/thc4/working/aeon/db/ead/nnc-rb/ldpd_5018084_ead.xml

Error, filename must begin with dot slash at group/position: 2/96 value: /home/thc4/working/aeon/db/ead/nnc-rb/ldpd_4078567_ead.xml

Using abbreviation: nnc-rb
        Input file: nnc-rb_faList.txt
       Output file: nnc-rb_list.xml

Using abbreviation: colu
        Input file: colu_faList.txt
       Output file: colu_list.xml

Using abbreviation: colu
        Input file: colu_faList.txt
       Output file: colu_list.xml

